2022-06-27 16:17:21: case.setup starting 
 ---------------------------------------------------
2022-06-27 16:17:21: case.setup success 
 ---------------------------------------------------
2022-06-27 16:20:21: case.build starting 
 ---------------------------------------------------
2022-06-27 16:20:24: case.build error 
ERROR: /Workspace_II/shixm/CESM/my_cesm_sandbox/cime/src/build_scripts/buildlib.gptl FAILED, cat /Workspace_II/shixm/CESM/my_cesm_sandbox/cesm_experiments/historical/bld/gptl.bldlog.220627-162021
 ---------------------------------------------------
2022-06-27 16:25:16: case.build starting 
 ---------------------------------------------------
2022-06-27 16:25:19: case.build error 
ERROR: /Workspace_II/shixm/CESM/my_cesm_sandbox/cime/src/build_scripts/buildlib.gptl FAILED, cat /Workspace_II/shixm/CESM/my_cesm_sandbox/cesm_experiments/historical/bld/gptl.bldlog.220627-162516
 ---------------------------------------------------
2022-06-27 16:28:43: case.build starting 
 ---------------------------------------------------
CESM version is cesm2.2.0
Processing externals description file : Externals.cfg
Processing externals description file : Externals_CAM.cfg
Processing externals description file : .gitmodules
Processing submodules description file : .gitmodules
Processing externals description file : ../Externals_cime.cfg
Processing externals description file : Externals_CISM.cfg
Processing externals description file : Externals_CLM.cfg
Processing externals description file : Externals_POP.cfg
Checking status of externals: cam, chem_proc, carma, cosp2, clubb, silhs, pumas, atmos_phys, atmos_cubed_sphere, cice, cdeps, fox, cime, cmeps, cism, source_cism, clm, fates, ptclm, fms, mom, mosart, pop, cvmix, marbl, rtm, ww3, 
 M  ./cime
        modified sandbox, on cime5.8.32
e-o ./cime/src/drivers/nuopc/
        -, not checked out --> 
    ./components/cam
        clean sandbox, on cam_cesm2_2_rel_02
    ./components/cam/chem_proc
        clean sandbox, on tools/proc_atm/chem_proc/release_tags/chem_proc5_0_04
    ./components/cam/src/atmos_phys
        clean sandbox, on version0_00_007
    ./components/cam/src/dynamics/fv3/atmos_cubed_sphere
        clean sandbox, on fv3_cesm.04
    ./components/cam/src/physics/carma/base
        clean sandbox, on carma/release_tags/carma3_49_rel
    ./components/cam/src/physics/clubb
        clean sandbox, on clubb_release_b76a124_20200220_c20200320
    ./components/cam/src/physics/cosp2/src
        clean sandbox, on CFMIP/COSPv2.0/tags/v2.1.4cesm/src
    ./components/cam/src/physics/pumas
        clean sandbox, on pumas_cam-release_v1.3
    ./components/cam/src/physics/silhs
        clean sandbox, on silhs_clubb_release_b76a124_20200220_c20200320
    ./components/cdeps
        clean sandbox, on 45b7a85823da1d187fe500d1be6e96bbcd1dff2e
    ./components/cdeps/fox
        clean sandbox, on 7b9488446b193192dd3f0378541e71099cb4e8a8
    ./components/cice
        clean sandbox, on cice5_20200430
    ./components/cism
        clean sandbox, on cism2_1_69
    ./components/cism/source_cism
        clean sandbox, on f1a88d6bbe3bb5e2e8817f91aed6de87227f4bb7
    ./components/clm
        clean sandbox, on release-cesm2.2.01
    ./components/clm/src/fates
        clean sandbox, on sci.1.30.0_api.8.0.0
    ./components/clm/tools/PTCLM
        clean sandbox, on PTCLM2_20200902
e-o ./components/mom
        -, not checked out --> mi_20200908
    ./components/mosart
        clean sandbox, on mosart1_0_37
    ./components/pop
        clean sandbox, on cesm_pop_2_1_20200730
    ./components/pop/externals/CVMix
        clean sandbox, on v0.98-beta
    ./components/pop/externals/MARBL
        clean sandbox, on cesm2.2-n00
    ./components/rtm
        clean sandbox, on rtm1_0_72
    ./components/ww3
        clean sandbox, on ww3_200710
e-o ./libraries/FMS
        -, not checked out --> fi_20200609
2022-06-27 16:36:36: case.build success 
 ---------------------------------------------------
2022-07-07 18:04:16: xmlchange success <command> ./xmlchange NTASKS=24  </command>
 ---------------------------------------------------
2022-07-07 18:04:35: xmlchange success <command> ./xmlchange NTHRDS=2  </command>
 ---------------------------------------------------
2022-07-07 18:06:28: xmlchange success <command> ./xmlchange ROOTPE=1  </command>
 ---------------------------------------------------
2022-07-07 18:06:37: case.setup starting 
 ---------------------------------------------------
2022-07-07 18:06:37: build.clean starting 
 ---------------------------------------------------
2022-07-07 18:06:38: build.clean success 
 ---------------------------------------------------
2022-07-07 18:06:38: build.clean starting 
 ---------------------------------------------------
2022-07-07 18:06:38: build.clean success 
 ---------------------------------------------------
2022-07-07 18:06:38: case.setup success 
 ---------------------------------------------------
2022-07-07 18:06:50: build.clean starting 
 ---------------------------------------------------
2022-07-07 18:06:50: build.clean success 
 ---------------------------------------------------
2022-07-07 18:06:56: case.build starting 
 ---------------------------------------------------
2022-07-07 18:15:19: case.build error 
ERROR: Error gathering provenance information from manage_externals.

manage_externals error message:
    ERROR:root:External externals description file "Externals.cfg" does not exist! In directory: /Workspace_II/shixm/CESM/my_cesm_sandbox/components/cice

manage_externals output:
    Processing externals description file : Externals.cfg
    Processing externals description file : Externals_CAM.cfg
    
    ERROR: External externals description file "Externals.cfg" does not exist! In directory: /Workspace_II/shixm/CESM/my_cesm_sandbox/components/cice

To solve this, either:

(1) Find and fix the problem: From /Workspace_II/shixm/CESM/my_cesm_sandbox, try to get this command to work:
    manage_externals/checkout_externals --status --verbose --no-logging

(2) If you don't need provenance information, rebuild with --skip-provenance-check

 ---------------------------------------------------
2022-07-07 18:18:21: xmlchange success <command> ./xmlchange ROOTPE=0  </command>
 ---------------------------------------------------
2022-07-07 18:18:29: case.setup starting 
 ---------------------------------------------------
2022-07-07 18:18:29: case.setup success 
 ---------------------------------------------------
2022-07-07 18:18:41: build.clean starting 
 ---------------------------------------------------
2022-07-07 18:18:44: build.clean success 
 ---------------------------------------------------
2022-07-07 18:19:14: case.build starting 
 ---------------------------------------------------
2022-07-07 18:26:41: case.build success 
 ---------------------------------------------------
2022-07-07 18:29:10: case.submit starting 
 ---------------------------------------------------
2022-07-07 20:15:49: case.submit success case.run:96, case.st_archive:97
 ---------------------------------------------------
2022-07-07 20:15:49: case.run starting 
 ---------------------------------------------------
2022-07-07 20:15:52: model execution starting 
 ---------------------------------------------------
2022-07-07 20:15:53: model execution error 
ERROR: Command: 'mpirun -np 24 /Workspace_II/shixm/CESM/my_cesm_sandbox/cesm_experiments/historical/bld/cesm.exe   >> cesm.log.$LID 2>&1 ' failed with error '' from dir '/Workspace_II/shixm/CESM/my_cesm_sandbox/cesm_experiments/historical/run'
 ---------------------------------------------------
2022-07-07 20:15:53: case.run error 
ERROR: RUN FAIL: Command 'mpirun -np 24 /Workspace_II/shixm/CESM/my_cesm_sandbox/cesm_experiments/historical/bld/cesm.exe   >> cesm.log.$LID 2>&1 ' failed
See log file for details: /Workspace_II/shixm/CESM/my_cesm_sandbox/cesm_experiments/historical/run/cesm.log.96.220707-201549
 ---------------------------------------------------
2022-07-07 20:39:10: case.submit starting 
 ---------------------------------------------------
2022-07-07 20:39:13: case.submit success case.run:98, case.st_archive:99
 ---------------------------------------------------
2022-07-07 20:39:13: case.run starting 
 ---------------------------------------------------
2022-07-07 20:39:16: model execution starting 
 ---------------------------------------------------
2022-07-07 20:39:25: model execution error 
ERROR: Command: 'mpirun -np 24 /Workspace_II/shixm/CESM/my_cesm_sandbox/cesm_experiments/historical/bld/cesm.exe   >> cesm.log.$LID 2>&1 ' failed with error '' from dir '/Workspace_II/shixm/CESM/my_cesm_sandbox/cesm_experiments/historical/run'
 ---------------------------------------------------
2022-07-07 20:39:25: case.run error 
ERROR: RUN FAIL: Command 'mpirun -np 24 /Workspace_II/shixm/CESM/my_cesm_sandbox/cesm_experiments/historical/bld/cesm.exe   >> cesm.log.$LID 2>&1 ' failed
See log file for details: /Workspace_II/shixm/CESM/my_cesm_sandbox/cesm_experiments/historical/run/cesm.log.98.220707-203913
 ---------------------------------------------------
2022-07-07 20:42:59: build.clean starting 
 ---------------------------------------------------
2022-07-07 20:42:59: build.clean success 
 ---------------------------------------------------
2022-07-07 20:43:10: case.build starting 
 ---------------------------------------------------
2022-07-07 20:51:30: case.build error 
ERROR: Error gathering provenance information from manage_externals.

manage_externals error message:
    ERROR:root:External externals description file "Externals.cfg" does not exist! In directory: /Workspace_II/shixm/CESM/my_cesm_sandbox/components/cice

manage_externals output:
    Processing externals description file : Externals.cfg
    Processing externals description file : Externals_CAM.cfg
    
    ERROR: External externals description file "Externals.cfg" does not exist! In directory: /Workspace_II/shixm/CESM/my_cesm_sandbox/components/cice

To solve this, either:

(1) Find and fix the problem: From /Workspace_II/shixm/CESM/my_cesm_sandbox, try to get this command to work:
    manage_externals/checkout_externals --status --verbose --no-logging

(2) If you don't need provenance information, rebuild with --skip-provenance-check

 ---------------------------------------------------
2022-07-07 20:52:33: case.build starting 
 ---------------------------------------------------
2022-07-07 20:52:40: case.build success 
 ---------------------------------------------------
2022-07-07 20:52:58: case.submit starting 
 ---------------------------------------------------
2022-07-07 20:53:01: case.submit success case.run:100, case.st_archive:101
 ---------------------------------------------------
2022-07-07 20:53:01: case.run starting 
 ---------------------------------------------------
2022-07-07 20:53:04: model execution starting 
 ---------------------------------------------------
2022-07-07 20:53:13: model execution error 
ERROR: Command: 'mpirun -np 24 /Workspace_II/shixm/CESM/my_cesm_sandbox/cesm_experiments/historical/bld/cesm.exe   >> cesm.log.$LID 2>&1 ' failed with error '' from dir '/Workspace_II/shixm/CESM/my_cesm_sandbox/cesm_experiments/historical/run'
 ---------------------------------------------------
2022-07-07 20:53:13: case.run error 
ERROR: RUN FAIL: Command 'mpirun -np 24 /Workspace_II/shixm/CESM/my_cesm_sandbox/cesm_experiments/historical/bld/cesm.exe   >> cesm.log.$LID 2>&1 ' failed
See log file for details: /Workspace_II/shixm/CESM/my_cesm_sandbox/cesm_experiments/historical/run/cesm.log.100.220707-205301
 ---------------------------------------------------
2022-07-07 21:30:42: build.clean starting 
 ---------------------------------------------------
2022-07-07 21:30:42: build.clean success 
 ---------------------------------------------------
2022-07-07 21:30:46: case.build starting 
 ---------------------------------------------------
2022-07-07 21:39:13: case.build error 
ERROR: Error gathering provenance information from manage_externals.

manage_externals error message:
    ERROR:root:External externals description file "Externals.cfg" does not exist! In directory: /Workspace_II/shixm/CESM/my_cesm_sandbox/components/cice

manage_externals output:
    Processing externals description file : Externals.cfg
    Processing externals description file : Externals_CAM.cfg
    
    ERROR: External externals description file "Externals.cfg" does not exist! In directory: /Workspace_II/shixm/CESM/my_cesm_sandbox/components/cice

To solve this, either:

(1) Find and fix the problem: From /Workspace_II/shixm/CESM/my_cesm_sandbox, try to get this command to work:
    manage_externals/checkout_externals --status --verbose --no-logging

(2) If you don't need provenance information, rebuild with --skip-provenance-check

 ---------------------------------------------------
2022-07-07 21:40:28: case.build starting 
 ---------------------------------------------------
2022-07-07 21:40:35: case.build success 
 ---------------------------------------------------
2022-07-07 21:41:17: case.submit starting 
 ---------------------------------------------------
2022-07-07 21:41:20: case.submit success case.run:106, case.st_archive:107
 ---------------------------------------------------
2022-07-07 21:41:20: case.run starting 
 ---------------------------------------------------
2022-07-07 21:41:23: model execution starting 
 ---------------------------------------------------
2022-07-07 21:41:33: model execution error 
ERROR: Command: 'mpirun -np 24 /Workspace_II/shixm/CESM/my_cesm_sandbox/cesm_experiments/historical/bld/cesm.exe   >> cesm.log.$LID 2>&1 ' failed with error '' from dir '/Workspace_II/shixm/CESM/my_cesm_sandbox/cesm_experiments/historical/run'
 ---------------------------------------------------
2022-07-07 21:41:33: case.run error 
ERROR: RUN FAIL: Command 'mpirun -np 24 /Workspace_II/shixm/CESM/my_cesm_sandbox/cesm_experiments/historical/bld/cesm.exe   >> cesm.log.$LID 2>&1 ' failed
See log file for details: /Workspace_II/shixm/CESM/my_cesm_sandbox/cesm_experiments/historical/run/cesm.log.106.220707-214120
 ---------------------------------------------------
